Data_Gen/Output_Model/case_ieee123_storage_796.m
function mpc = case_ieee123_storage_796
%CASE_IEEE123_STORAGE_796

%% MATPOWER Case Format : Version 2
mpc.version = '2';

%%-----  Power Flow Data  -----%%
%% system MVA base
mpc.baseMVA = 1;

%% bus data
%	bus_i	type	Pd	Qd	Gs	Bs	area	Vm	Va	baseKV	zone	Vmax	Vmin
mpc.bus = [
	1	3	-0.003145	-0.0015725	0	0	1	1	0	4.16	1	1.2	0.8;
	2	1	-0.002175	-0.0010875	0	0	1	1	0	4.16	1	1.2	0.8;
	3	1	0.000661	0.0003305	0	0	1	1	0	4.16	1	1.2	0.8;
	4	1	-0.002136	-0.001068	0	0	1	1	0	4.16	1	1.2	0.8;
	5	1	-0.002292	-0.001146	0	0	1	1	0	4.16	1	1.2	0.8;
	6	1	1e-10	5e-11	0	0	1	1	0	4.16	1	1.2	0.8;
	7	1	1e-10	5e-11	0	0	1	1	0	4.16	1	1.2	0.8;
	8	1	-0.003509	-0.0017545	0	0	1	1	0	4.16	1	1.2	0.8;
	9	1	-0.006949	-0.0034745	0	0	1	1	0	4.16	1	1.2	0.8;
	10	1	-0.003867	-0.0019335	0	0	1	1	0	4.16	1	1.2	0.8;
	11	1	-0.003043	-0.0015215	0	0	1	1	0	4.16	1	1.2	0.8;
	12	1	-0.003883	-0.0019415	0	0	1	1	0	4.16	1	1.2	0.8;
	13	1	-0.003267	-0.0016335	0	0	1	1	0	4.16	1	1.2	0.8;
	14	1	1e-10	5e-11	0	0	1	1	0	4.16	1	1.2	0.8;
	15	1	-0.003392	-0.001696	0	0	1	1	0	4.16	1	1.2	0.8;
	16	1	-0.003499	-0.0017495	0	0	1	1	0	4.16	1	1.2	0.8;
	17	1	-0.004436	-0.002218	0	0	1	1	0	4.16	1	1.2	0.8;
	18	1	-0.003827	-0.0019135	0	0	1	1	0	4.16	1	1.2	0.8;
	19	1	-0.002381	-0.0011905	0	0	1	1	0	4.16	1	1.2	0.8;
	20	1	-0.002734	-0.001367	0	0	1	1	0	4.16	1	1.2	0.8;
	21	1	-0.003903	-0.0019515	0	0	1	1	0	4.16	1	1.2	0.8;
	22	1	-0.002428	-0.001214	0	0	1	1	0	4.16	1	1.2	0.8;
	23	1	-0.003565	-0.0017825	0	0	1	1	0	4.16	1	1.2	0.8;
	24	1	-0.00299	-0.001495	0	0	1	1	0	4.16	1	1.2	0.8;
	25	1	-0.00255	-0.001275	0	0	1	1	0	4.16	1	1.2	0.8;
	26	1	0.000265	0.0001325	0	0	1	1	0	4.16	1	1.2	0.8;
	27	1	0.000584	0.000292	0	0	1	1	0	4.16	1	1.2	0.8;
	28	1	-0.001992	-0.000996	0	0	1	1	0	4.16	1	1.2	0.8;
	29	1	-0.002038	-0.001019	0	0	1	1	0	4.16	1	1.2	0.8;
	30	1	-0.003828	-0.001914	0	0	1	1	0	4.16	1	1.2	0.8;
	31	1	-0.004147	-0.0020735	0	0	1	1	0	4.16	1	1.2	0.8;
	32	1	-0.003459	-0.0017295	0	0	1	1	0	4.16	1	1.2	0.8;
	33	1	-0.002034	-0.001017	0	0	1	1	0	4.16	1	1.2	0.8;
	34	1	-0.004065	-0.0020325	0	0	1	1	0	4.16	1	1.2	0.8;
	35	1	-0.003003	-0.0015015	0	0	1	1	0	4.16	1	1.2	0.8;
	36	1	-0.001434	-0.000717	0	0	1	1	0	4.16	1	1.2	0.8;
	37	1	-0.003569	-0.0017845	0	0	1	1	0	4.16	1	1.2	0.8;
	38	1	-0.004113	-0.0020565	0	0	1	1	0	4.16	1	1.2	0.8;
	39	1	-0.00299	-0.001495	0	0	1	1	0	4.16	1	1.2	0.8;
	40	1	-0.002527	-0.0012635	0	0	1	1	0	4.16	1	1.2	0.8;
	41	1	-0.00637	-0.003185	0	0	1	1	0	4.16	1	1.2	0.8;
	42	1	-0.002857	-0.0014285	0	0	1	1	0	4.16	1	1.2	0.8;
	43	1	-0.003968	-0.001984	0	0	1	1	0	4.16	1	1.2	0.8;
	44	1	-0.004025	-0.0020125	0	0	1	1	0	4.16	1	1.2	0.8;
	45	1	1e-10	5e-11	0	0	1	1	0	4.16	1	1.2	0.8;
	46	1	-0.001281	-0.0006405	0	0	1	1	0	4.16	1	1.2	0.8;
	47	1	1e-10	5e-11	0	0	1	1	0	4.16	1	1.2	0.8;
	48	1	1e-10	5e-11	0	0	1	1	0	4.16	1	1.2	0.8;
	49	1	0.000987	0.0004935	0	0	1	1	0	4.16	1	1.2	0.8;
	50	1	-0.004216	-0.002108	0	0	1	1	0	4.16	1	1.2	0.8;
	51	1	1e-10	5e-11	0	0	1	1	0	4.16	1	1.2	0.8;
	52	1	1e-10	5e-11	0	0	1	1	0	4.16	1	1.2	0.8;
	53	1	-0.001248	-0.000624	0	0	1	1	0	4.16	1	1.2	0.8;
	54	1	1e-10	5e-11	0	0	1	1	0	4.16	1	1.2	0.8;
	55	1	1e-10	5e-11	0	0	1	1	0	4.16	1	1.2	0.8;
	56	1	-0.003452	-0.001726	0	0	1	1	0	4.16	1	1.2	0.8;
	57	1	1e-10	5e-11	0	0	1	1	0	4.16	1	1.2	0.8;
	58	1	1e-10	5e-11	0	0	1	1	0	4.16	1	1.2	0.8;
	59	1	0.000202	0.000101	0	0	1	1	0	4.16	1	1.2	0.8;
	60	1	-0.003697	-0.0018485	0	0	1	1	0	4.16	1	1.2	0.8;
];

%% generator data
%	bus	Pg	Qg	Qmax	Qmin	Vg	mBase	status	Pmax	Pmin	Pc1	Pc2	Qc1min	Qc1max	Qc2min	Qc2max	ramp_agc	ramp_10	ramp_30	ramp_q	apf
mpc.gen = [
	1	-0.137584999	0	200	-200	1	1	1	200	-200	0	0	0	0	0	0	10	0	0	0	0;
];

%% branch data
%	fbus	tbus	r	x	b	rateA	rateB	rateC	ratio	angle	status	angmin	angmax
mpc.branch = [
	1	2	0.0013398623	0.0027450827	3.02770272e-08	100	100	100	0	0	1	-80	80;
	1	2	0.0013398623	0.0027450827	3.02770272e-08	100	100	100	0	0	1	-80	80;
	2	3	0.0013398623	0.0027450827	3.02770272e-08	100	100	100	0	0	1	-80	80;
	3	4	0.0013398623	0.0027450827	3.02770272e-08	100	100	100	0	0	1	-80	80;
	4	5	0.0013398623	0.0027450827	3.02770272e-08	100	100	100	0	0	1	-80	80;
	5	6	0.0013398623	0.0027450827	3.02770272e-08	100	100	100	0	0	1	-80	80;
	6	7	0.0013398623	0.0027450827	3.02770272e-08	100	100	100	0	0	1	-80	80;
	7	8	0.0013398623	0.0027450827	3.02770272e-08	100	100	100	0	0	1	-80	80;
	8	9	0.0013398623	0.0027450827	3.02770272e-08	100	100	100	0	0	1	-80	80;
	9	10	0.0013398623	0.0027450827	3.02770272e-08	100	100	100	0	0	1	-80	80;
	10	11	0.0013398623	0.0027450827	3.02770272e-08	100	100	100	0	0	1	-80	80;
	11	12	0.0013398623	0.0027450827	3.02770272e-08	100	100	100	0	0	1	-80	80;
	12	13	0.0013398623	0.0027450827	3.02770272e-08	100	100	100	0	0	1	-80	80;
	13	14	0.0013398623	0.0027450827	3.02770272e-08	100	100	100	0	0	1	-80	80;
	14	15	0.0013398623	0.0027450827	3.02770272e-08	100	100	100	0	0	1	-80	80;
	15	16	0.0013398623	0.0027450827	3.02770272e-08	100	100	100	0	0	1	-80	80;
	16	17	0.0013398623	0.0027450827	3.02770272e-08	100	100	100	0	0	1	-80	80;
	17	18	0.0013398623	0.0027450827	3.02770272e-08	100	100	100	0	0	1	-80	80;
	18	19	0.0013398623	0.0027450827	3.02770272e-08	100	100	100	0	0	1	-80	80;
	19	20	0.0013398623	0.0027450827	3.02770272e-08	100	100	100	0	0	1	-80	80;
	20	21	0.0013398623	0.0027450827	3.02770272e-08	100	100	100	0	0	1	-80	80;
	21	22	0.0013398623	0.0027450827	3.02770272e-08	100	100	100	0	0	1	-80	80;
	22	23	0.0013398623	0.0027450827	3.02770272e-08	100	100	100	0	0	1	-80	80;
	23	24	0.0013398623	0.0027450827	3.02770272e-08	100	100	100	0	0	1	-80	80;
	24	25	0.0013398623	0.0027450827	3.02770272e-08	100	100	100	0	0	1	-80	80;
	25	26	0.0013398623	0.0027450827	3.02770272e-08	100	100	100	0	0	1	-80	80;
	26	27	0.0013398623	0.0027450827	3.02770272e-08	100	100	100	0	0	1	-80	80;
	27	28	0.0013398623	0.0027450827	3.02770272e-08	100	100	100	0	0	1	-80	80;
	28	29	0.0013398623	0.0027450827	3.02770272e-08	100	100	100	0	0	1	-80	80;
	1	30	0.0013398623	0.0027450827	3.02770272e-08	100	100	100	0	0	1	-80	80;
	30	31	0.0013398623	0.0027450827	3.02770272e-08	100	100	100	0	0	1	-80	80;
	31	32	0.0013398623	0.0027450827	3.02770272e-08	100	100	100	0	0	1	-80	80;
	32	33	0.0013398623	0.0027450827	3.02770272e-08	100	100	100	0	0	1	-80	80;
	33	34	0.0013398623	0.0027450827	3.02770272e-08	100	100	100	0	0	1	-80	80;
	34	35	0.0013398623	0.0027450827	3.02770272e-08	100	100	100	0	0	1	-80	80;
	35	36	0.0013398623	0.0027450827	3.02770272e-08	100	100	100	0	0	1	-80	80;
	36	37	0.0013398623	0.0027450827	3.02770272e-08	100	100	100	0	0	1	-80	80;
	37	38	0.0013398623	0.0027450827	3.02770272e-08	100	100	100	0	0	1	-80	80;
	38	39	0.0013398623	0.0027450827	3.02770272e-08	100	100	100	0	0	1	-80	80;
	39	40	0.0013398623	0.0027450827	3.02770272e-08	100	100	100	0	0	1	-80	80;
	40	41	0.0013398623	0.0027450827	3.02770272e-08	100	100	100	0	0	1	-80	80;
	41	42	0.0013398623	0.0027450827	3.02770272e-08	100	100	100	0	0	1	-80	80;
	42	43	0.0013398623	0.0027450827	3.02770272e-08	100	100	100	0	0	1	-80	80;
	43	44	0.0013398623	0.0027450827	3.02770272e-08	100	100	100	0	0	1	-80	80;
	44	45	0.0013398623	0.0027450827	3.02770272e-08	100	100	100	0	0	1	-80	80;
	45	46	0.0013398623	0.0027450827	3.02770272e-08	100	100	100	0	0	1	-80	80;
	46	47	0.0013398623	0.0027450827	3.02770272e-08	100	100	100	0	0	1	-80	80;
	47	48	0.0013398623	0.0027450827	3.02770272e-08	100	100	100	0	0	1	-80	80;
	48	49	0.0013398623	0.0027450827	3.02770272e-08	100	100	100	0	0	1	-80	80;
	49	50	0.0013398623	0.0027450827	3.02770272e-08	100	100	100	0	0	1	-80	80;
	50	51	0.0013398623	0.0027450827	3.02770272e-08	100	100	100	0	0	1	-80	80;
	51	52	0.0013398623	0.0027450827	3.02770272e-08	100	100	100	0	0	1	-80	80;
	52	53	0.0013398623	0.0027450827	3.02770272e-08	100	100	100	0	0	1	-80	80;
	53	54	0.0013398623	0.0027450827	3.02770272e-08	100	100	100	0	0	1	-80	80;
	54	55	0.0013398623	0.0027450827	3.02770272e-08	100	100	100	0	0	1	-80	80;
	55	56	0.0013398623	0.0027450827	3.02770272e-08	100	100	100	0	0	1	-80	80;
	56	57	0.0013398623	0.0027450827	3.02770272e-08	100	100	100	0	0	1	-80	80;
	57	58	0.0013398623	0.0027450827	3.02770272e-08	100	100	100	0	0	1	-80	80;
	58	59	0.0013398623	0.0027450827	3.02770272e-08	100	100	100	0	0	1	-80	80;
	59	60	0.0013398623	0.0027450827	3.02770272e-08	100	100	100	0	0	1	-80	80;
];

%%-----  OPF Data  -----%%
%% generator cost data
%	1	startup	shutdown	n	x1	y1	...	xn	yn
%	2	startup	shutdown	n	c(n-1)	...	c0
mpc.gencost = [
	2	0	0	3	1	1	0;
];
     %% storage data
 % hours;
mpc.time_elapsed = 0.0167
